4. Members of the Consortium .........................................................................................................................................................59
4.1 Participants (applicants) ........................................................................................................................................................... 59
4.2 Third parties involved in the project (including use of third party resources) ............................................................................ 93 
5. Ethics and Security .......................................................................................................................................................................96
5.1 Ethics........................................................................................................................................................................................ 96
5.2 Security .................................................................................................................................................................................... 96
5.3 ANNEX: Support letter from Advisory Board ............................................................................................................................ 96 
  
 
 
 
 
 
 
 
 
 
 
 
 
 
 
 
 
                DT-NMBP-08-2019 
Page 3 of  97 
862583-NanoPAT-Part B  
 
 
 
 
 
 
 
 
 
 
 
 
List of acronyms 
AB: Advisory Board 
AFM: Atomic Force Microscopy 
CBR: Case Based Reasoning  
CAGR: Compound annual growth rate  
CAPEX: Capital expenditure. 
CEFIC: European Chemical Industry Council 
CFD: Computational Fluid Dynamics  
CHDF: Capillary HydroDynamic Fractionation 
CS: Case Study 
DSS: Decision Support System  
DLS: Dynamic Light Scattering 
EMCC: European Materials Characterisation Council 
EMMC: European Materials Modelling Council 
EPPN: European Network for Pilot Production Facilities & Innovation Hubs 
ERP: Enterprise Resource Planning 
ETPN: Nanomedicine European Technology Platform 
FAU: Faujasite-type 
FBRM: Focused beam reflectance measurement  
GA: Grant Agreement 
HAp: Hydroxyapatite 
HDC: HydroDynamic Chromatography 
IC: Innovation Committee 
IQ: Installation Qualification 
IPR: Intellectual Property Rights 
KER: Key Exploitable Result 
KPI: Key Performance Indicator 
LE: Large Enterprise 
LCA: Life Cycle Assessment 
LTA: Linde Type A 
MES: Manufacturing Execution System 
NIR: Near-InfraRed 
NP: Nanoparticle  
NTA: Nanoparticle Track Analysis 
OF2i: OptoFluidic force induction  
OG&S: Other Goods & Services 
OPEX: Operational expenditure 
OPR: OpenProcessResearch 
OQ: Operational Qualification 
PAT: Process Analytical Technology  
PDW: Photon Density Wave spectroscopy 
PEDR: Plan for the Exploitation &Dissemination of the Results 
PESTL: Political, Economic, Social, Technological and Legal analysis 
PQ: Performance Qualification 
                DT-NMBP-08-2019 
Page 4 of  97 
862583-NanoPAT-Part B  
 
PSC: Project steering committee 
RI: Rule Induction 
RIS3: National/Regional Research and Innovation Strategies for Smart Specialisation 
ROI: Return Of Investment 
RTO: Research and Technology Organisation 
SAT: Sustainability Assessment of Technologies  
SAXS: Small-angle X-ray scattering 
SbD: Safe-by-Design 
SEM: Scanning Electron Microscopy 
SME: Small and Medium-sized Enterprise 
SPIRE: Sustainable Process Industry through Resource and Energy Efficiency  
SUSCHEM: European Technology Platform for Sustainable Chemistry 
SVR: Support Vector Regression 
SWOT: Strengths, Weaknesses, Opportunities, Threats 
TEM: Transmission Electron Microscopy 
TRL: Technology Readiness Level  
TUS: Turbidity spectrometry  
WAXS: Wide-angle X-ray scattering 
XRD: X-Ray Powder Diffraction 
 
                DT-NMBP-08-2019 
Page 5 of  97 
862583-NanoPAT-Part B  
 
1. Excellence
1.1 Objectives 
Nano-scaled materials are abundant in different stages of industrial manufacturing and increasingly used in a number of applications 
from biomedical to packaging, automotive or energy. Physical and chemical properties of these materials are strongly dependent on 
their size, making the characterisation of mean size, size distribution, and shape of nano-scaled particles a major critical aspect for 
the quality and efficiency of manufacturing processes. Yet, conventional characterisation technologies still display manifold 
shortcomings which represents a major innovation obstacle for manufacturers of nanoparticles. In particular, in most cases, they have 
to be performed via offline testing of sampled materials, which results in very high characterisation times, impossibility of controlling 
product quality and reliability during the process, as well as higher costs derived from resource-consuming laboratory procedures. 
The increasingly demanding market for nano-scaled materials and nanoparticles (NPs) due to the need of guaranteeing product 
quality and regulatory compliance is considered mandatory to stay competitive in the European market and beyond. Consequently, 
the development of new technologies capable of improving the speed and reliability of nanoparticle characterisation in real-time 
industrial applications is a major demand of nano-scaled materials producers. The estimated market size for nano-characterisation 
has been estimated in 573.7 million Euros for 2016, expecting to grow at an expected CAGR of 7.3 % due to the rise of international 
quality standards for materials1. 
 
While focusing on the 
most representative 
chemical production of 
nano-scaled particles in 
suspensions, the 
NanoPAT project will 
bridge this gap using 
three novel, 
complementary real-time 
in situ particle size 
characterisation 
technologies – Photon 
Density Wave 
spectroscopy (PDW), 
OptoFluidic force 
induction (OF2i) and 
Turbidity spectrometry 
(TUS). These 
technologies will be 
advanced from the “lab-status” (TRL 4) to a technology demonstration level for inline/online2 process monitoring at pilot scale in the 
industrial environment (TRL 6) of the NanoPAT industrial partners. This is accompanied by a simultaneous development of a PAT 
(Process Analytical Technology) Software Platform for holistic digital process data storage and analysis, in conjunction with 
process modelling and the development of a Decision Support System (DSS) to fuse the data-rich multi-modal results of the 
nano-characterisation technologies with the industrial production reality, allowing for a digitalized real-time process and quality 
control. Having an even broader potential, the validation of the NanoPAT solution will be performed in 5 different complementary 
application cases in large and small companies for the production of mineral, polymer and conversion of ceramic NPs electrolyte 
suspensions with different shape and aggregation behaviours. 
 
Importantly, our project will deliver a set of recommendations for standards as well as nanosafety activities to demonstrate the 
advantage of the inline monitoring approach. To support the roll out of the project results in the NPs processing industries, the project 
will also cover technical and transversal training activities also used as a vector for cross-fertilization with other related projects 
encapsulated in a clustering strategy supported by the partners’ involvement in numerous EU networks, like SPIRE, ETPN or 
NanoSafetyCluster, as well as in synergistic ongoing H2020 projects. In parallel, NanoPAT will develop a number of outreach activities 
                                                           
 
1 Metrology Services Market Size, Share & Trends Analysis Report By Product (CMM & ODS), By Application (Automotive, Aerospace, Industrial), By Region, And 
Segment Forecasts, 2019 – 2025 
2 Inline monitoring devices (i.e. PDW, TUS) can be integrated directly in the NP production process reactors, while online systems (OF2i) need to be integrated via 
by-pass systems to guarantee proper operating conditions. 
Figure 1:NanoPAT innovation and validation cases (further techniques/NPs combinations will be screened in 
WP2-3-4) 
                DT-NMBP-08-2019 
Page 6 of  97 
862583-NanoPAT-Part B  
 
to improve the understanding and acceptance of NP production in Europe among the public. 
The project includes a suite of relevant stakeholders along the supply and value chain to prepare the successful deployment of 
NanoPAT. The NanoPAT consortium consists of 14 members, representing instrument developers, process data and modelling 
experts, academic process researchers, industrial processing specialists, as well as innovation and dissemination experts. NanoPAT 
will intensively contribute to enhancing the innovation capacity of the European nanotechnology sector. It aims at empowering small- 
to large-scale European industrial manufacturers of nano-scaled particles to gain understanding and thus control on the underlying 
particle formation processes during production. This will enable 
them to reduce cost (increased space-time-yield, reduced 
feedstock and energy demand) and to save on time-to-market for 
product development as well as to increase product quality and 
consistency. 
All in all, the overriding goal of NanoPAT is to deliver three novel, 
real-time nano-characterisation Process Analytical Technologies 
(PAT) validated in five different industrial manufacturing 
environments, including real-time data handling for digital 
production process monitoring and quality control. This implies 
that innovating PATs integrated inline (PDW, TUS) or online 
(OF2i) will be paired with new data-analytical methodologies in 
order to provide, for the first time, a real-time analysis for 
manufacturing processes of particles in the nanometre scale with 
sub minute temporal resolution. By overcoming the current 
challenges linked to NPs characterisation, and validating new 
versatile technologies for real-time process monitoring in a variety 
of sectors, as well as thanks to complementary transversal 
activities, NanoPAT will have enduring impacts for significantly 
improving the manufacturing of nanoparticles. 
 
To achieve our goals, a 48-month work plan with the following specific objectives, linked to their specific WPs and related key 
performance indicators (KPIs), which will be used as milestones (MS) for project implementation, have been defined.  
Objective 1: To define the specifications of the processes to be monitored via the tailored NanoPAT technologies (WP1) 
After an updated state of the art patent and market review, the industrial requirements for each of the five nanoparticles production 
and conversion processes involved in NanoPAT will be outlined with the support of the reference RTOs. Detailed specifications for 
each of the innovative in situ nano-monitoring technologies to be coupled with the industrial applications will be confirmed. KPIs: By 
M4 (MS1), the requirements of each industrial process will be summarised, highlighting the specifications for NanoPAT integration. 
Objective 2: To develop an inline monitoring tool based on PDW Spectroscopy for the real time characterization of polymer 
dispersions, nano-silica and zeolite NPs (WP2) 
Photon Density Wave (PDW) Spectroscopy will be applied to the selected relevant nanoparticles for the inline, real-time monitoring 
of the concentration and the dimension of the nanosized structures with an expected error of less than 1% of the measured value 
and a measurement range from 25 nm to 250 µm at concentrations from 0.1% to 50% in less than a minute. KPIs: By M14, in linkage 
to MS2, the new optical equipment sets based on PDW will be delivered to responsible RTOs for the monitoring of nanostructured 
polymers, silica and zeolites. By M24 (MS3), the technology will have been tested and calibrated in the relevant RTO pilot scale 
process as input for the subsequent industrial validation.  
Objective 3: To develop an online monitoring tool based on OptoFluidic Force Induction (OF2i) for the characterization of 
hydroxyapatite and ceramic NPs (WP3)  
During NANOPAT project, using the combination and usage of microfluidic environments together with highly defined and accurate 
optical induced forces, the Optofluidic Force Induction (OF2i) based monitoring system will be validated for the characterization of 
at least two selected case studies (i.e. hydroxyapatite, ceramic nanoparticles suspension in electrolytic solutions/baths), providing 
information about nanoparticles shape and size. The feasibility of OF2i for the monitoring of nanostructured hydroxyapatite and 
ceramic nanoparticles within the electrolyte will be confirmed at pilot scale, providing the relevant particle parameters such as size 
(20-1000nm, depending on particle-system properties) and size distributions (accuracy to be defined within the project WP3), 
concentration and basic shape information (aspect ratio, under investigation) in real time (characterisation <10sec latency, and < 
1min including sample dilution latency, depending on sample volume fraction). KPIs: By M14 (MS4) the monitoring system sets will 
be set up in the pre-pilot scale processes in selected RTOs. By M24 (MS5) the nano-characterization technique will have been tested 
Figure 2: Conceptual drawing of NanoPAT characterisation 
technologies approach for nanoparticles production2. 
                DT-NMBP-08-2019 
Page 7 of  97 
862583-NanoPAT-Part B  
 
and calibrated in the RTOs at pre-pilot scale process validation as input for the subsequent industrial validation. 
 
Objective 4: To develop monitoring tool based on Turbidity Spectrometry (TUS) for the nano-characterization of silica, ceramic NPs 
suspensions in electrolytes and polymer dispersions (WP4) 
NANOPAT will validate a turbidity spectrometry (TUS) based technology for the nano-characterization of ceramic NPs 
suspensions in electrolytes and silica nanoparticles and polymers dispersion. Following the nature of the materials and their 
refraction index behaviour, simultaneous characterization of the size, size distribution and concentration of the selected 
nanoparticles will be determined. Its suitability to measure individual diluted particles above 100 nm, as well as the size distribution 
of agglomerates up to several hundred nm, within less than 5 seconds (including data treatment time) will be demonstrated. KPIs: 
By M14, coinciding with MS6, TUS testing sets for the monitoring of ceramic nanoparticles suspensions in electrolytes and its potential 
use for silica and polymers NPs  will be built in the selected RTOs. By M24 (MS7), the pre-industrial nano-characterization technology 
based on TUS will be ready for industrial testing and validation in the selected most suitable case study. 
Objective 5: To deliver a PAT Platform for holistic digital process data storage and analysis (WP5) 
NANOPAT will develop a robust data analysis toolkit for gathering, pre-processing, mining and visualising real-time NP synthesis 
and conversion processes data. The combination of nano-monitoring solutions with a software platform capable of modelling the data 
obtained will enable operators to optimise production processes. The conditioning of sensors to make them compatible with 
production line specificities and realisation of the required minor adaptations in the production line are critical steps. Electronics 
hardware and communication network will be designed and developed for ad hoc data collection and exchange. To this end, over 
the course of the project, a PAT Platform will centralise the data coming from the nano-characterization technologies improving the 
monitoring strategies of the NP production industries and providing data-driven tools to boost process efficiency. KPIs: By M48 
(MS10), a novel platform for hosting data for selected process industry operations will be available. System performance such as 
latency and computational time will be quantified against current methods.  
Objective 6: To design innovative data elaboration techniques for PAT applications (WP5) 
Using the PAT platform as a hosting system, several data elaboration techniques specifically oriented at enhancing PAT applications 
will be developed. Advanced data analysis techniques will be provided to allow users to perform accurate and fast evaluation of the 
data obtained from the monitoring technologies. Data fusion techniques will allow to complement different signals coming from the 
nano-monitoring technologies as well as other instrumentation and monitoring devices to maximise its use and increase its accuracy 
while maintaining an adequate cost-efficiency ratio. A decision support system (DSS) based on Expert System will be implemented 
which embodies data, information and knowledge that can be defined and input by material experts or induced automatically on raw 
data from empirical testing. Computational Fluid Dynamics (CFD) simulations for each industrial application will be developed to 
optimise the integration of nano-monitoring systems and other instrumentation in production processes, guaranteeing 
representativeness of the measurements. KPIs: By M28, data analysis and visualisation tools will be integrated in the beta version 
of PAT platform. By M42 (MS9), a decision support system will be validated for pilot scale systems By M48 (MS11), CFD simulations 
for the five industrial case studies will be available to support hardware integration. 
Objective 7: To set up the most suitable nano-characterization integrated solution for the production of polymer dispersions in DSM 
(WP6-Case study 1) 
A feasible system not prone to signal saturation for the characterization of highly concentrated polymer dispersions (up to 60 wt%) 
will be delivered. DSM will perform the pilot-scale monitoring tool demonstration for the monitoring of the particle size and size 
distributions of relevant polymer dispersions. KPIs: By M27 (MS12), the process will be set up at pilot scale unit at DSM. By M36 
(MS13), UPV will validate the most adequate monitoring solution at DSM facilities. By M48 (MS14), the validation of the nano-
characterization system will be carried out in DSM (200 L scale). 
Objective 8: To set up the tailored nano-characterization integrated solution for the production of silica nanoparticles in EVONIK 
(WP6-Case study 2) 
The most robust and durable monitoring technique designed to resist the extreme pH conditions needed for the silica nanoparti cle 
synthesis will be implemented in EVONIK at a pilot scale unit in a 2 m³ batch size. KPIs: By M27 (MS12) , an ad hoc nano -
characterization system will be implemented in EVONIK for the production of silica in a 2 m³ batch. In M36 (MS13), the monitoring 
system will be operative in the industrial site. At M48 (MS13), the new monitoring tool for the characterization of real time size and 
size distribution of the silica nanoparticle synthesis process will be validated in EVONIK and the time-saving quantified and proved. 
Objective 9: To set up the tailored nano-characterization integrated solution for zeolites production in ARK (WP6-Case 3) 
                DT-NMBP-08-2019 
Page 8 of  97 
862583-NanoPAT-Part B  
 
ARK will validate the potential of the continuous, inline nano-characterization tools developed in NANOPAT for the continuous 
manufacturing of zeolites. KPIs: By M27 (MS12) the most promising system will be installed in 40 L/batch or continuous reactor in 
ARK and in M36 (MS13) real-time acquisition of the data set up. By M48 (MS14), the validation of the NanoPAT solution against the 
current approach will be confirmed by guaranteeing a time saving in particle size measurement by at least 1 day. 
 
Objective 10: To set up the tailored nano-characterization integrated solution for the production of nano-hydroxyapatite in FLU (WP6-
Case study 4) 
NANOPAT will demonstrate the feasibility of a high temporal resolution, continuous nano-monitoring tool for the continuous 
manufacturing of hydroxyapatite (approx.18 tons/year in FLU facilities). KPIs: MS12 (M27), will confirm the operative integration of 
the selected monitoring tool. By M36 (MS13), the validation of the monitoring systems will be confirmed in a pilot of 350 L/h. The 
implementation of the solutions vs. the current approach will confirm we reach a time saving by at least 10 business days by M48 
(MS14). Moreover, it will enable the reduction of the development time of future formulations. 
Objective 11: To set up the combined nano-monitoring technology to the semi-industrial electroplating pilot line in CNANO. (WP6-
Case study 5) 
A monitoring system able to characterize size and size distribution, shape real time overcoming the limits of the current technology 
such as sampling, low sensitivity, low specificity, lack of accuracy will be selected for the specific detection of the selected ceramic 
nanoparticles employed at electroplating pilot industrial scale. CNANO will provide the semi-industrial pilot line that is established in 
its premises in Athens for the demonstration activities in the framework of NanoPAT reaching TRL6. Two different types of NPs 
suspensions in electrolytes  will be investigated: (SiC, 100nm) and TiO2 (50 nm). KPIs: At M27 (MS12) the most suitable nano-
monitoring technique will be delivered to CNANO facilities. By M36 (MS13) CNANO will demonstrate the feasibility of the new tool 
acquiring real-time data about size and size distribution. At M48 (MS14) will be, finally, validated, permitting the operators of the 
industrial pilot line to intervene if the monitoring results dictates it. 
Objective 12: To maximise the dissemination and innovation of NANOPAT outcomes through Open Innovation to benefit the 
NANOPAT consortium and the wider European process industry and Academia (WP7, WP8) 
A set of measures will be undertaken to establish a positive framework to stimulate the uptake of the NanoPAT innovation. The 
outcomes in the form of metadata will be shared with other projects and stakeholders. An aim is for active information exchange 
amongst the key-players in the emerging nano-characterisation technologies with the final goal of promoting a wide diffusion of the 
know-how acquired during the project that could be applied to many others industrial nano-production. KPIs: By M4 (MS15), the 
project website will be launched as one of the main communication channels to addressed the identified stakeholders (MS16, M15). 
By M48, both an educational training materials (MS17) and a final PEDR (MS18) will be generated  
Objective 13: To maximize the impacts of NanoPAT, including growth and job creation, via post project industrial commercialisation 
of the project outcomes (WP8) 
The business models for the three nano-monitoring technologies developed in the project, together with the PAT platform will be 
defined and the value proposition of our NanoPAT innovation will be formulated. The logistics and investments for the industrial 
implementation of the monitoring processes will be studied. The project knowledge and results will be managed and protected. 
Business plans and exploitation paths will be elaborated for all Key Exploitable Results (KERs) to map the post-project phase. 
Business and marketing strategies will be established. KPIs: By M36, final plans will be in place for the transition to the post-project 
phase and reaching the market, as well as the plan to successfully integrate NanoPAT in future waste management practices and 
circular value chains. Patent applications will be filed by technological providers and/or industrial partners to support partners’ optimal 
competitive commercial position. (MS18 M48), (MS19, M40)
1.2 Relation to the work programme 
How the project relates to the specific challenges and scope addressed by the topic DT-NMBP-08-2019 Real-time nano-
characterisation technologies (RIA), as part of ‘Leadership in enabling and industrial technologies – Nanotechnologies, Advanced 
Materials, Biotechnology and Advanced Manufacturing and Processing' work programme are outlined in Table 1 below: 
Table 1: How NanoPAT relates to the scope and challenges of the DT-NMBP-08-2019 topic 
Scope/challenges How NanoPAT addresses them 
Enterprises using and producing 
nanomaterials face a constant 
increase of requirements in regard to 
fast process and product quality 
control, regulatory compliance and 
NanoPAT aims to unite industrial manufacturers of NPs with academic research partners and 
innovative SMEs capable of leveraging the transfer of novel characterisation technologies into 
industry. The application of three innovative real-time nano-monitoring technologies (i.e. PWD, 
OF2i, TUS) will guarantee faster process characterisation and real time product quality 
assessment while addressing major industrial challenges, such as: 1) avoiding signal 
                DT-NMBP-08-2019 
Page 9 of  97 
862583-NanoPAT-Part B  
 
quicker market introduction of high 
quality products. This calls for real-
time measurements, necessitating 
process-adapted nanoscale 
metrology for the manufacturing 
industry 
saturation in extreme particles concentration processes; 2) designing robust, durable and 
fouling-resistant probes for extreme pH and viscosity conditions; and 3) establishing a 
continuous maintenance-free measuring strategy for continuous manufacturing. Accurate and 
precise evaluation of the properties of the NPs in suspension are directly related to the 
parameters involved during the production process. Thus, enhanced control of the factors that 
incur during the process.(i.e. hydrodynamics, current distribution, pH, etc.) can be correlated 
with the quality control of the final NPs and significantly increase the productivity of the line in 
terms of reproducibility, efficiency and high throughput while the quality and performance of 
the coated components is improved. 
Tools and devices for materials 
characterisation need increased 
speed and reliability, suitable for 
industrial demands, while at the 
same time retaining the same or 
better measurement accuracy and 
precision 
The implementation of novel monitoring technologies will substantially increase the speed for 
the characterisation of nanomaterials due to the possibility of performing measurements 
directly inline (PDW, TUS) or online (OF2i) with time resolutions in the sub minute regime. This 
will allow to save the sample conditioning time required for the offline methods employed 
nowadays and eliminate often laborious offline measurements in more or less remote 
laboratories while maintaining precision in the sub percent scale. Furthermore, the use of a 
PAT data-analysis platform capable of treating and analysing the data obtained from the 
different monitoring technologies in real time will also contribute to the minimisation of the 
overall characterisation times. 
Proposals should advance and 
establish nano-scale, multimodal 
and multi-scale materials 
characterisation tools and methods, 
allowing rapid and reliable high-
resolution analyses.  
Physical and chemical properties of NPs are strongly dependent on their size. Characterisation 
of mean size, size distribution, and shape can be achieved either by particle ensemble 
measurements (as by PDW, TUS) or by single particle characterisation (as by OF2i). While 
the first approach is of fundamental statistical benefit for mean sizes, the second is especially 
well suited for size distribution, D-Values and basic shape information. NanoPAT aims at 
developing the three complementary real-time nano-characterisation technologies to an 
industrial demonstration level for the given nanoparticle manufacturing processes, providing a 
complete multi-modal methodology. Furthermore, the combination of more than one 
complementary NanoPAT technique will be assessed to guarantee the measurement of all 
NPs characteristics defined by the industrial end-users.  
Suitable for characterisation during 
processing and manufacturing of 
advanced materials, i.e. real-time 
and reliable. Optimisation of existing 
or the development of new 
technologies, characterisation 
equipment, data processing routes 
and data analysis strategies, or a 
combination of these. 
The innovative nano-monitoring technologies proposed as a cornerstone of NanoPAT will be 
integrated into the existing monitoring and control architectures available at the five different 
industry partners. The PAT data-analysis platform will allow data analysis and data fusion 
techniques to be performed to guarantee that all the information obtained in real-time from the 
processes is effectively integrated and used for properly monitoring and controlling the 
nanoparticles production. Data-driven strategies based on predictive model development will 
also be explored aiming at generating a Case Based Reasoning in which successful process 
configurations are stored in a historical database for use by subsequent similar processes. 
The main objective of NanoPAT is to have the data delivered from the online/inline monitoring 
devices ready to be interpreted by the end-user in real time, i.e. sub-minute intervals.  
Proposals should deal with one or 
more industrial applications 
The NanoPAT consortium will focus on five different industrial case studies. Our industry 
partners DSM, EVONIK, FLU, ARK, and CNANO will share and provide their samples to the 
consortium, exchange process knowledge and provide access to their production lines. All 
industry partners have expressed their deep interest in applying our technologies and to assist 
in developing new strategies for a broader application of PDW, O2Fi and TUS in the European/ 
global market. Also, they are clearly committed to the consortium with a willingness to engage 
in our steering committee and providing advice at all levels during the project development. 
Moreover, NanoPAT is based on the engagement of another four SMEs, which are crucial 